[Format]      =  1
[Precision]   =  1e-008
[MinAngle]    =  30
[DoSmartMesh] =  0
[Depth]       =  1
[LengthUnits] =  centimeters
[ProblemType] =  planar
[Coordinates] =  cartesian
[PrevSoln] = ""
[dT] = 0
[Comment]     =  "Add comments here."
[PointProps]   = 0
[BdryProps]   = 3
  <BeginBdry>
    <BdryName> = "Outer"
    <BdryType> = 0
    <Tset> = 295
    <qs>   = 0
    <beta> = 0
    <h>    = 0
    <Tinf> = 0
  <EndBdry>
  <BeginBdry>
    <BdryName> = "Generator"
    <BdryType> = 1
    <Tset> = 395
    <qs>   = 0.10000000000000001
    <beta> = 0
    <h>    = 0
    <Tinf> = 0
  <EndBdry>
  <BeginBdry>
    <BdryName> = "CBound"
    <BdryType> = 2
    <Tset> = 0
    <qs>   = 0
    <beta> = 0
    <h>    = 5
    <Tinf> = 295
  <EndBdry>
[BlockProps]  = 4
  <BeginBlock>
    <BlockName> = "Iron, Pure"
    <Kx> = 83
    <Ky> = 83
    <Kt> = 3.5299999999999998
    <qv> = 0
    <TKPoints> = 6
      273	83
      473	66
      673	53
      873	41
      1073	32
      1273	30
  <EndBlock>
  <BeginBlock>
    <BlockName> = "Silver"
    <Kx> = 428
    <Ky> = 428
    <Kt> = 2.484
    <qv> = 2000000
    <TKPoints> = 6
      273	428
      473	415
      673	399
      873	383
      1073	368
      1273	355
  <EndBlock>
  <BeginBlock>
    <BlockName> = "Window"
    <Kx> = 0.83999999999999997
    <Ky> = 0.83999999999999997
    <Kt> = 2.2679999999999998
    <qv> = 0
  <EndBlock>
  <BeginBlock>
    <BlockName> = "Air"
    <Kx> = 0.018100000000000002
    <Ky> = 0.018100000000000002
    <Kt> = 0.0011850000000000001
    <qv> = 0
    <TKPoints> = 18
      200	0.018100000000000002
      250	0.0223
      300	0.026100000000000002
      350	0.029700000000000001
      400	0.033099999999999997
      450	0.036299999999999999
      500	0.0395
      550	0.042599999999999999
      600	0.045600000000000002
      700	0.051299999999999998
      800	0.056899999999999999
      900	0.0625
      1000	0.067199999999999996
      1200	0.075899999999999995
      1400	0.083500000000000005
      1600	0.090399999999999994
      1800	0.097000000000000003
      2000	0.1032
  <EndBlock>
[ConductorProps]  = 1
  <BeginConductor>
    <ConductorName> = "New Conductor1"
    <Tc> = 355
    <qc> = 1
    <ConductorType> = 1
  <EndConductor>
[NumPoints] = 18
1.75	1	0	0	0
1.75	-1	0	0	0
-1.75	-1	0	0	0
-1.75	1	0	0	0
-1.75	1.5	0	0	0
1.75	1.5	0	0	0
1.75	-1.5	0	0	0
-1.75	-1.5	0	0	0
-2.75	1.5	0	0	0
-2.75	-1.5	0	0	0
2.75	-1.5	0	0	0
2.75	1.5	0	0	0
-4.75	0	0	0	0
4.75	0	0	0	0
-1.75	-0.0050000000000000001	0	0	0
-1.75	0.0030000000000000001	0	0	0
1.75	0.0030000000000000001	0	0	0
1.75	-0.0050000000000000001	0	0	0
[NumSegments] = 22
8	4	-1	3	0	0	0
4	3	-1	0	0	0	0
2	7	-1	0	0	0	0
7	9	-1	3	0	0	0
5	11	-1	3	0	0	0
10	6	-1	3	0	0	0
6	1	-1	0	0	0	0
0	5	-1	0	0	0	0
5	4	-1	3	0	0	0
3	0	-1	3	0	0	0
6	7	-1	3	0	0	0
2	1	-1	3	0	0	0
8	9	-1	3	0	0	0
11	10	-1	3	0	0	0
15	14	-1	0	0	0	0
16	17	-1	0	0	0	0
0	16	-1	0	0	0	0
16	15	-1	0	0	0	0
15	3	-1	0	0	0	0
14	2	-1	0	0	0	0
1	17	-1	0	0	0	0
17	14	-1	0	0	0	0
[NumArcSegments] = 2
12	13	180	1	1	0	0	0	1
13	12	180	1	1	0	0	0	1
[NumHoles] = 0
[NumBlockLabels] = 8
0.050000000000000003	0	2	-1	0	0
0.050000000000000003	0.5	4	-1	0	0
2.25	0	1	-1	0	0
0.050000000000000003	1.3	3	-1	0	0
0.050000000000000003	-1.3	3	-1	0	0
-2.3500000000000001	0.5	1	-1	0	0
0	2.75	4	-1	0	0
0.25	-0.5	4	-1	0	0
[Solution]
6442
-4.75	0	295	-1
-4.7492765519928586	-0.082898930577096686	295	-1
-4.7492765519928843	0.082898930577099295	295	-1
-4.6649581537582945	-0.040710473057271053	295.15079265357963	-2
-4.6781909637869834	0.040825954040915019	295.12718654513435	-2
-4.7471064283407047	-0.16577260933687962	295	-1
-4.615297486077143	-0.12085581798888137	295.23786638961559	-2
-4.7471064283407305	0.16577260933688265	295.00000000000006	-1
-4.6152974860771678	0.12085581798888419	295.23769866404064	-2
-4.5657951489648472	0.017225022463200838	295.33035465306574	-2
-4.7434902900842264	-0.24859579215398322	295	-1
-4.6606956122737557	-0.20349036504143761	295.15110606793729	-2
-4.5334883134452362	-0.25889677406311284	295.37803303368378	-2
-4.4353293409734462	-0.10746108382219262	295.57156043632841	-2
-4.7434902900842522	0.24859579215398669	295	-1
-4.6749980093764529	0.2041148211847954	295.12552189587097	-2
-4.596814197437765	0.23989958187560578	295.26376571095432	-2
-4.4748296523718345	0.16257265650347991	295.49429075140762	-2
-4.7384292387341658	-0.33134325028459521	295	-1
-4.669643000315399	-0.28560760106665867	295.12750342382958	-2
-4.5917866460033743	-0.32209932122620416	295.26420544497284	-2
-4.3776923560354826	-0.25235138848357275	295.67000611055687	-2
-4.4612875736158362	-0.38398368700980812	295.49634213669157	-2
-4.2520752010868019	-0.11847213878591767	295.92118930445247	-2
-4.2321506954276611	0.064028100094053825	295.96157496425502	-2
-4.7384292387341906	0.3313432502845991	295	-1
-4.669643000315423	0.2856076010666615	295.12740330110455	-2
-4.6507547311108111	0.36602233536109263	295.15136183150855	-2
-4.531247958885781	0.29552624732579186	295.37811890934194	-2
-4.3758155990745387	0.2830360935590775	295.67077833916522	-2
-4.7319248159357921	-0.41398977805137638	295.00000000000006	-1
-4.6650266223744632	-0.3671455575631552	295.12591037301672	-2
-4.5956243776707337	-0.44250829719932117	295.23902971735146	-2
-4.2313250074487634	-0.26381386942671431	295.95044898493666	-2
-4.3065167892968974	-0.38991297784616602	295.78823046781571	-2
-4.321078947175141	-0.54411121300613985	295.73127414833618	-2
-4.5338616064654484	-0.53933382716896938	295.33338209338945	-2
-4.0854842704984451	-0.16884033311327137	296.250176437015	-2
-4.2143233051278619	0.23234717647655265	295.98687265925639	-2
-4.0156738998412305	0.12620374624617603	296.39446980217889	-2
-4.7319248159358169	0.41398977805138065	295	-1
-4.5956243776707577	0.44250829719932411	295.23873766710824	-2
-4.4153652803720318	0.43387058937112427	295.57399556586398	-2
-4.236647904235884	0.40012899788109263	295.92143530060542	-2
-4.7239790029992994	-0.49651020052135414	295	-1
-4.6482958699628423	-0.52960641751024295	295.12816576156604	-2
-4.1650380453782985	-0.38880784908109867	296.06463489717675	-2
-4.1941500077106646	-0.51560028671360758	295.98375812056724	-2
-4.227024346622601	-0.66604118358664344	295.88219933462636	-2
-4.4430294354750304	-0.71854561876805034	295.45675087173856	-2
-4.6252249044593992	-0.608922410575504	295.15218763021647	-2
-4.5661671393007399	-0.68241825129597911	295.24023574950508	-2
-3.8383569475970125	-0.012672862470428479	296.76695264167245	-2
-3.9529318422474446	-0.28162041521492692	296.51097402853452	-2
-4.027758391613574	0.34254713977787138	296.34747406980676	-2
-3.7772126228906631	0.24803290100875564	296.88517030507143	-2
-4.7239790029993234	0.49651020052135869	294.99999999999994	-1
-4.6351476217018286	0.52810836384652537	295.15160380492307	-2
-4.5296632021100116	0.57352708668455243	295.33256834185266	-2
-4.4216623278084306	0.70670541615907734	295.49921249136531	-2
-4.1906857336486558	0.5761002296327058	295.97559424807849	-2
-4.7145942202962807	-0.5788793811744507	295	-1
-4.0665297222983607	-0.49036358045235395	296.24370567473306	-2
-4.1085611369278503	-0.61311546148031493	296.13073258927369	-2
-4.2930960333290349	-0.80513725767440181	295.71220340314181	-2
-4.0762142456205819	-0.7867705966476839	296.14382126171682	-2
-4.5327048432282568	-0.81034105453815164	295.26433892542076	-2
-4.4614571340040747	-0.84554365304753387	295.38282862003319	-2
-4.7037733265224597	-0.66107222956031109	295	-1
-4.6915196178269056	-0.74306370894109686	295	-1
-4.6011562567570401	-0.76996949279702154	295.15283696517815	-2
-3.6071090329496687	0.098448688099712453	297.26243959405775	-2
-3.6215829411601632	-0.12760699982595375	297.22982406769802	-2
-3.6354507840431505	-0.3704215845160882	297.17651604048075	-2
-3.8907038120637583	-0.61913996790263404	296.5790624812542	-2
-3.9473036422232135	0.57227846462267484	296.46836121327351	-2
-3.5709243695691604	0.31110799588635474	297.32727325641366	-2
-3.6288726569144507	0.53258379873809658	297.15861674711306	-2
-4.7145942202963047	0.5788793811744557	295	-1
-4.638345005537162	0.61064970465099266	295.12810217693885	-2
-4.566167139300763	0.68241825129598321	295.2397758386939	-2
-4.533313836950696	0.79832213476819669	295.26657355242156	-2
-4.461457134004096	0.84554365304754175	295.38239361358575	-2
-4.3065003946543277	0.8148362053325966	295.68290662193368	-2
-4.0736134745234986	0.7803536303169214	296.1497514290665	-2
-4.3841264886495246	-0.95241791903802109	295.48729200868786	-2
-4.2111328022401775	-0.9575688026001169	295.8127529782343	-2
-3.9209948523055265	-0.93935494714206014	296.40375658125129	-2
-4.6000293786883741	-0.85256505170310259	295.12910794244107	-2
-4.571481808909609	-0.93007848579627295	295.15349852205333	-2
-4.507441094815122	-0.99927563289796228	295.24261612278747	-2
-4.6778368268079902	-0.82482884391791944	295	-1
-3.355923321663159	0.32865394845598228	297.81521302852354	-2
-3.4072540525324748	-0.0081752063371114958	297.71199933988424	-2
-3.4171271619172221	-0.26324866057405666	297.6790916033853	-2
-3.5811695330004918	-0.60749706909792667	297.25304108320586	-2
-3.2955250989136431	-0.487687702673607	297.93043977717485	-2
-3.5440466365179679	-0.90539740797254065	297.24159723266865	-2
-3.7923713330158701	0.80870359487281929	296.72378557794934	-2
-3.4462324973381122	0.82719651714743181	297.4981199305505	-2
-4.7037733265224837	0.66107222956031642	295.00000000000006	-1
-4.6915196178269287	0.74306370894110252	295.00000000000006	-1
-4.6152759439003868	0.77233231808300384	295.12677855545007	-2
-4.6000293786883955	0.85256505170310859	295.12885435740139	-2
-4.5714818089096312	0.93007848579627939	295.15336295826921	-2
-4.3841264886495477	0.95241791903802853	295.48637401056237	-2
-4.5074410948151442	0.99927563289796895	295.24236370551921	-2
-4.228947395727217	0.95726247258098618	295.77797030397875	-2
-3.9716783229645323	1.0272210221084248	296.25757405886708	-2
-4.4479620787246983	-1.0678612162956398	295.32218923621173	-2
-4.3280713218446785	-1.1443714926008863	295.50858737731028	-2
-4.1493644123574907	-1.1192413517550863	295.86023137945068	-2
-3.9040072764173037	-1.2520986432778285	296.27585032479737	-2
-3.5266296026848498	-1.2050962038949102	297.13103658439707	-2
-4.6627291213764055	-0.90634272803858817	295	-1
-4.6462011034855788	-0.98758053138435742	294.99999999999994	-1
-4.6282578077298693	-1.0685175081333593	295.00000000000006	-1
-4.5362377146608122	-1.0890543214281894	295.1545475657465	-2
-2.9734139677812008	0.1875	298.71547014308874	-2
-3.0662006935595767	0.52491267233836236	298.47528468739387	-2
-3.16249822184135	-0.28125	298.26636961963652	-2
-3.0506699610745329	-0.09375	298.53579224248193	-2
-3.2980961280536123	-0.73326063464682945	297.87559391564986	-2
-3.0506699610745329	-0.46875	298.51736084861199	-2
-3.2668757442771277	-1.039645080676366	297.85174246480375	-2
-3.6693447061813469	1.0924794302867851	296.86282047864194	-2
-3.1542066595740743	1.1598919996211128	298.10188516539245	-2
-4.6778368268080124	0.82482884391792544	295	-1
-4.6627291213764277	0.90634272803859461	295	-1
-4.646201103485601	0.98758053138436386	295	-1
-4.3593799822306973	1.0414726914219323	295.49594103875256	-2
-4.4479620787247214	1.067861216295646	295.32210006832531	-2
-4.6282578077298915	1.0685175081333662	295	-1
-4.5362377146608344	1.0890543214281962	295.15438181265046	-2
-4.2231167394052616	1.1158793392023842	295.71790595909135	-2
-4.1403064291716483	1.2926683269015631	295.78191742456323	-2
-3.9414701680059787	1.3897713346636571	296.10903464765556	-2
-4.4698210668319316	-1.1559743268071436	295.24362649376189	-2
-4.2821191973359873	-1.2414863947740358	295.54529065356201	-2
-4.3841761285552954	-1.2750614563683211	295.34075960899565	-2
-4.1760053369221701	-1.3142938130992972	295.70441714682391	-2
-3.8104167510340909	-1.4582522671670926	296.32397628792756	-2
-4.0330324553140722	-1.4994924331719712	295.85891439456788	-2
-3.5325617083779877	-1.681929059775424	296.69372059945647	-2
-3.1059453008615807	-1.3125	298.12877533623197	-2
-4.6089046998109851	-1.1491290040984223	295.00000000000006	-1
-2.75	0	299.24680426148689	-2
-2.75	0.375	299.24536004671722	-2
-2.75	0.75	299.24215999393499	-2
-2.9441823728836272	-0.28125	298.78258336450534	-2
-2.75	-0.1875	299.24638049633501	-2
-2.9441823728836272	-0.65625	298.75923333786096	-2
-2.9602459281606621	-0.9375	298.67887549564659	-2
-2.75	-0.375	299.24538537592935	-2
-2.75	-0.5625	299.24388809740424	-2
-3.6163690341272461	1.3972052970024147	296.77935789511503	-2
-3.1908992015913991	1.7721680482090347	297.33641078220222	-2
-2.75	1.5	299.23591622002255	-2
-4.3775213414425194	1.1321039947902212	295.42187924700823	-2
-4.4698210668319529	1.1559743268071494	295.24316643568653	-2
-4.6089046998110073	1.1491290040984294	295	-1
-4.3353448140849098	1.2841876392458245	295.42335995085983	-2
-4.2710352053815326	1.4376575703762213	295.45330394632299	-2
-4.1109000720746849	1.5321032020653624	295.68628971956423	-2
-3.8842169960655024	1.6035163396896031	296.05958252997652	-2
-4.5881476748730767	-1.2293904642369744	295.00000000000006	-1
-4.4954669135105547	-1.2467033121254045	295.15500307809526	-2
-4.3003739824411058	-1.3473620992190527	295.45401348240512	-2
-4.485712621752671	-1.3287286130848748	295.13108123771553	-2
-4.403196310620821	-1.3883224639351535	295.24524766595761	-2
-4.2208751898401555	-1.4349079409377516	295.54807225392557	-2
-3.8890799604075967	-1.6705506481671417	296.00017457159299	-2
-4.1047432213051014	-1.6116219488247367	295.64495755796645	-2
-4.2242935030710687	-1.5531138949413459	295.46622797871197	-2
-3.4282285553211054	-2.0230292290134124	296.4942945567231	-2
-3.714085165523191	-2.0102030423801232	295.99953887836432	-2
-3.0431343107467868	-1.8211382928859425	297.58291644732873	-2
-2.75	-1.125	299.23871681523599	-2
-2.75	-1.5	299.23619333852639	-2
-2.4646730954390472	0.1983797737271335	299.24812306857172	-2
-2.4546078955177069	-0.078271856186569247	299.2486999611375	-2
-2.5371729407824515	0.60767644731220005	299.24431889980781	-2
-2.3213559317925854	0.74542393155614184	299.24363185953416	-2
-2.2201804049889069	1.1165182370287265	299.23966841754236	-2
-2.529583380213881	-0.40413512258305939	299.24629404951378	-2
-2.75	-0.75	299.24215085437936	-2
-2.5771587466052512	-0.65625	299.24371968341808	-2
-3.7194934118472989	1.7191868799679693	296.27547405510495	-2
-3.4732781401162431	2.0015213688686346	296.44576753640854	-2
-2.8461719292685133	1.8374078992343816	297.92811732778841	-2
-3.2928833525698726	2.1213671942120036	296.59467813384498	-2
-2.25	1.5	299.23694625384229	-2
-2.5	1.7803279042142162	298.43933462748623	-2
-4.4079846814094337	1.2224423419946253	295.32262505492139	-2
-4.588147674873098	1.2293904642369817	295	-1
-4.4954669135105751	1.246703312125411	295.15477930738956	-2
-4.3626368337578443	1.3755341100026932	295.32363134281377	-2
-4.42675525040198	1.3112646440633113	295.24384176738795	-2
-4.2963353141540725	1.5454076847430791	295.34115089242624	-2
-4.3782961145887658	1.4649573873355144	295.24458792633345	-2
-4.0637367169777372	1.6945449225060671	295.65406418643386	-2
-4.2956258662081694	1.6920920280219101	295.2442837098622	-2
-3.942749781074316	1.796097351643255	295.79045637406006	-2
-4.5659930557070174	-1.309277440130747	295	-1
-4.3379660026810214	-1.4514631206561877	295.32566473983383	-2
-4.5424475908244215	-1.3887655974330004	295	-1
-4.5175184524019825	-1.4678307232810013	295	-1
-4.4240586223522982	-1.480269308241869	295.15607654700403	-2
-3.9443219867591797	-1.8895349091063927	295.70741733781648	-2
-4.1056635877757213	-1.8440024063869553	295.4630343113098	-2
-4.2181502655398955	-1.6812947882779365	295.3895752382345	-2
-4.2948059261289462	-1.6603336644730782	295.26924416526714	-2
-4.3520622471466606	-1.5411460705243174	295.24558533375875	-2
-3.2079093327227302	-2.2235146334273796	296.57440221619095	-2
-3.670231688825099	-2.1757151682286113	295.89557817898412	-2
-3.495497738569433	-2.3011539665771221	296.02821609803721	-2
-3.9701057377805071	-2.0551836917935784	295.51517303348743	-2
-3.8271282820298471	-2.2442779151261782	295.56876651899364	-2
-2.5	-1.7978852903749343	298.41624947547166	-2
-2.6071874668907729	-2.1161910674393862	297.56321063491606	-2
-2.8510994967715027	-2.34709070462084	296.84400716456776	-2
-2.5545527791732741	-0.90413079394856155	299.24129867583218	-2
-2.3923562298443408	-1.1216277644132322	299.2394831935402	-2
-2.25	-1.5	299.23703864537026	-2
-2.3106617256055202	0.48832813277053233	299.24687623697679	-2
-2.2170248966764747	0.074655070320666886	299.25194794052078	-2
-2.1932795747479972	0.2529965249146704	299.25084639861564	-2
-2.3186363685760711	-0.33389482128141146	299.24858318516624	-2
-2.1748648651885625	-0.11797277773267327	299.25251101094148	-2
-2.1115993804849689	0.61798674872356951	299.24627843683135	-2
-2.0763420908460621	0.75978583008659561	299.24411464052793	-2
-1.9685507428191127	1.125	299.2385888320768	-2
-2	1.5	299.23568098998862	-2
-2.3179794272580998	-0.4723708078170783	299.2470732881788	-2
-2.3923117198979575	-0.58920719208937611	299.24526869564687	-2
-2.3287334171922063	-0.79943345144853317	299.24304318186273	-2
-3.8594734447586014	1.9093557981430898	295.83869034161035	-2
-3.6807442607399925	2.06367529086448	296.00005416207335	-2
-3.5310191834537163	2.210258699359454	296.08645721872176	-2
-2.9844241223229369	2.3129281335579219	296.75601258411251	-2
-2.571520521341514	2.2559401938428887	297.30888895371845	-2
-3.2791943422724663	2.466198705835712	296.12828250828022	-2
-3.477605687874318	2.4128698858827429	295.91509943145951	-2
-2.125	1.7589098305115025	298.62540037619766	-2
-2.1728578150999081	2.1342641665059099	297.79899282754144	-2
-4.5659930557070378	1.3092774401307545	295	-1
-4.4492190783997989	1.4028333868767255	295.15524193930514	-2
-4.5424475908244419	1.3887655974330082	294.99999999999994	-1
-4.3697029515318437	1.6337649874772902	295.15524814820157	-2
-4.4100248259504511	1.5616716961905153	295.13103627579341	-2
-4.5175184524020029	1.4678307232810095	295.00000000000006	-1
-4.4912132340967776	1.5464487336715036	295.00000000000006	-1
-4.1961062420265076	1.7998540077841179	295.34054071729241	-2
-4.0862135753191398	1.8621948119866072	295.48233450232647	-2
-4.4345070258617314	1.7022477603401864	294.99999999999994	-1
-4.4041233091922631	1.7793813187255925	295.00000000000006	-1
-4.3100234707660681	1.785270175737665	295.15509251543432	-2
-3.9954579058986166	1.945001979175337	295.56973352218557	-2
-4.4912132340967581	-1.5464487336714952	295	-1
-4.0905938677418856	-1.9714425269221825	295.38488211133711	-2
-4.1685249730767824	-1.9558796919366281	295.26653848682446	-2
-4.2339559268421025	-1.8409764320301361	295.24429188077499	-2
-4.3100234707660476	-1.7852701757376559	295.15536921276129	-2
-4.3697029515318242	-1.6337649874772808	295.15588539102055	-2
-4.3528368017697563	-1.7146280148593496	295.13129539960539	-2
-4.463539948733068	-1.6245956807969277	295	-1
-3.184966908413088	-2.5205139640599259	296.17385722461137	-2
-3.706473625562777	-2.3430588661765714	295.65510153103423	-2
-3.491845974596234	-2.5162202589684504	295.76857834211063	-2
-4.0016852726452692	-2.1984760681899997	295.33233234423062	-2
-4.0952221988577335	-2.1318377414134075	295.24071904663396	-2
-3.8395625743088129	-2.4243149683430061	295.36788608734099	-2
-3.9780380724102331	-2.3432435016844644	295.23571881125361	-2
-2.125	-1.9008932814327104	298.29223250544442	-2
-2.5002289835191864	-2.4345738615817756	297.0260036606004	-2
-2.1150903057344377	-2.4083539103197333	297.29128686925196	-2
-3.0272355668778426	-2.6795349259245391	296.13863845719999	-2
-2.6858120971002579	-2.7449322476056603	296.37597054930217	-2
-2.1601284351414312	-1.2619235382018466	299.23816481051711	-2
-2.1460542789602943	-1.0078384777196441	299.24062282335217	-2
-2	-1.5	299.2355748740689	-2
-2.1642015377856394	0.48166701796020789	299.24808288904569	-2
-2.0531338351839423	0.00043085120693689074	299.25612779024294	-2
-2.0425763543081521	0.11866894092709714	299.25564328249447	-2
-2.0803302999286366	0.36141489728416643	299.250854609199	-2
-2.038726767966355	0.27800676412557218	299.25307037234006	-2
-2.1672221908752953	-0.27460606292079065	299.25107280566135	-2
-2.1865546162636567	-0.42874112212033827	299.24874975610624	-2
-2.0074114193844443	-0.089737932233151019	299.2571373220697	-2
-2.0141506347380571	-0.24052534694818969	299.25426428020819	-2
-2.0193997319930959	0.50463208068534993	299.24872047152218	-2
-1.8844737358165493	0.58221217662549662	299.24770014468339	-2
-1.7500000000000002	0.75075000000000003	299.24427772955733	-2
-1.7500000000000002	1	299.23924304533978	-2
-1.7500000000000002	1.25	299.2351554455874	-2
-1.875	1.9008932814327104	298.33562006809518	-2
-1.7500000000000002	1.5	299.23265590859569	-2
-2.2615623698966236	-0.5903274230698603	299.24592932468096	-2
-2.1779128264578405	-0.73253981177379701	299.24434096404866	-2
-3.9155078172658104	2.0382843558463675	295.62263651005827	-2
-3.8467301285699644	2.2777591826451369	295.50366211854055	-2
-3.6925886874110732	2.3436738027224511	295.6768496645978	-2
-2.8115972931153568	2.5966749185643949	296.49351162990632	-2
-3.1326955949816568	2.6102443310498682	296.11922317043036	-2
-2.4844844027619595	2.7826729795550245	296.4806541994771	-2
-2.1957746222282464	2.5119625487727424	297.09660874764137	-2
-3.4088232945011341	2.6255955685564425	295.75281351323014	-2
-3.5419154331249731	2.6269901566955056	295.57465099687448	-2
-3.7394729576675134	2.5046277906351389	295.43251958215416	-2
-1.7743079715972525	2.3479905622031003	297.49486460727462	-2
-4.4635399487330876	1.6245956807969359	295	-1
-4.2903455164492517	1.8654953234102933	295.13077841181774	-2
-4.2011816059135878	1.914588762075371	295.24392081714495	-2
-4.1112604493619438	1.9860311078184583	295.33854508064388	-2
-4.3723980538991141	1.8559728603240611	295	-1
-4.1749903180722701	-2.0815733863919803	295.15336499306784	-2
-4.2226271059939791	-2.0140898132671694	295.12991516187299	-2
-4.2450928903093637	-1.9346002872886843	295.15463061317712	-2
-4.3723980538990936	-1.8559728603240522	295	-1
-4.3393409238023564	-1.9319990546100525	295.00000000000006	-1
-4.4041233091922427	-1.7793813187255838	295	-1
-4.434507025861711	-1.7022477603401778	295	-1
-3.4125897619225358	-2.7263805075415424	295.62366222268804	-2
-3.1956117033043103	-2.8272384096239791	295.75818698136311	-2
-3.7157710456204964	-2.4987148342532159	295.47185032163327	-2
-3.5856254104780487	-2.7203140970267579	295.41024714166929	-2
-3.7240507726413856	-2.6563396006215871	295.29335480337755	-2
-4.1114308259643115	-2.2323248006264897	295.12806628607581	-2
-4.0603275052746746	-2.29722277301147	295.15066602485848	-2
-4.2322809898947504	-2.1564548737628488	295	-1
-4.1940010660799061	-2.2299899232329827	295	-1
-3.9776821448732167	-2.4375267533484424	295.14816572412133	-2
-3.8599102419687834	-2.50785675410176	295.25435319022347	-2
-4.0715446783350373	-2.4464308558227597	295	-1
-4.1136206679760869	-2.3750000000000018	295	-1
-1.875	-1.7589098305115025	298.6112866744262	-2
-1.7723191538042273	-2.230794837404817	297.68655230043197	-2
-2.3095499003446105	-2.7418276769551548	296.65666347952197	-2
-1.4720117099842427	-2.6720544409837146	297.03270047692064	-2
-1.9207047729466864	-2.9611377054832002	296.51624961797302	-2
-2.996257822519278	-2.9013619345806325	295.87547698932474	-2
-2.5226906177199604	-3.0519146222834461	296.07609496528607	-2
-2.7645040699493104	-3.1529079379810856	295.7627066069536	-2
-1.94563077893339	-1.125	299.23833613715857	-2
-1.9625309850137964	-0.70929453815825128	299.24510131451058	-2
-1.7500000000000002	-1.25	299.23505485213639	-2
-1.7500000000000002	-1.5	299.23257961034767	-2
-1.9734617519261424	0.052907313325989247	299.25882624147636	-2
-1.9577556952900081	-0.0016739902462919801	299.25982355895184	-2
-1.9806967629302286	0.20506645247114091	299.25569460878972	-2
-1.9483341194295165	0.10384257615854459	299.25908382516468	-2
-1.9287903210361645	0.37808710695524167	299.25215491821029	-2
-1.9461696608132146	0.28900460319424748	299.25422694615492	-2
-2.0427488717378579	-0.36999363717651029	299.25120886513366	-2
-2.1318165551941615	-0.57412029468710168	299.24690485856132	-2
-1.9067810756426939	-0.080017709394921852	299.26152227522863	-2
-1.8832138925036417	-0.17634634648696046	299.2592084597851	-2
-1.8856401834669818	-0.25641906244860102	299.25633821231412	-2
-1.9174472555152726	-0.32664156333742589	299.25374127173058	-2
-1.8197035107610418	0.43937500000000002	299.25123730617941	-2
-1.7500000000000002	0.50149999999999995	299.2497260047499	-2
-1.5878242289443212	0.78197785867198166	299.11819782927847	-2
-1.6394363323771997	0.6250946197521563	299.20182710921603	-2
-1.5	1	298.91828401974084	-2
-1.375	1.23828125	298.7991585462421	-2
-1.3652994418275486	2.0209894009061968	297.96577994929447	-2
-1.3125	1.5	298.69834208876665	-2
-3.9849835594470422	2.2286067563944831	295.33122019150107	-2
-4.0952221988577504	2.1318377414134164	295.2405152210934	-2
-3.8395625743088257	2.424314968343015	295.36808720647855	-2
-3.9780380724102491	2.3432435016844733	295.23583433400404	-2
-2.6916862035606832	2.8948520119475614	296.16032795354198	-2
-2.8964295038145429	2.9066616028663361	295.96501757354611	-2
-3.1350166302551821	2.8544636166575277	295.79220236438078	-2
-3.2734076747932659	2.8098653651683896	295.69312989003566	-2
-2.5252893185403158	3.0147326279454352	296.12533780260611	-2
-2.279462331048983	2.898787886751641	296.44330192203455	-2
-1.9835155075337514	2.8764425067548389	296.61935273880346	-2
-3.4535940224922954	2.8191198085537335	295.46823685557223	-2
-3.5556497867716392	2.7593790904077045	295.4074855558228	-2
-3.6610979294168384	2.6862438048294743	295.34856683142925	-2
-3.8676617357284786	2.4986513399185677	295.25261319977977	-2
-3.804891367800006	2.6150293866365923	295.2256933342253	-2
-1.5476978807323347	2.7393584411761922	296.93368584919676	-2
-4.3393409238023768	1.931999054610062	295	-1
-4.3049619884241093	2.0074367432683338	295	-1
-4.2226271059939986	2.0140898132671792	295.13017926388812	-2
-4.1749903180722887	2.0815733863919896	295.15353073210696	-2
-4.2692717199210461	-2.0822629472481191	295	-1
-4.3049619884240897	-2.007436743268324	295	-1
-3.5422741369122726	-2.8410979861186196	295.33379966114842	-2
-3.4238208010660944	-2.8991578230876422	295.4126857034662	-2
-3.1375818928690693	-3.0603077551479552	295.53919509843348	-2
-3.2948067332692847	-3.0449816996800738	295.39355799787216	-2
-3.8048913677999936	-2.6150293866365817	295.22463581285245	-2
-3.6217087492047999	-2.8434647098967734	295.23302378761952	-2
-3.7113103213275869	-2.7462251751338833	295.21811009480194	-2
-3.7979594401153571	-2.7090581407882759	295.14071973768694	-2
-4.1544436089121337	-2.3028456961701025	295	-1
-4.0282284567430278	-2.5171165051077256	295	-1
-3.9456964807687935	-2.5136858860705829	295.12332479492335	-2
-3.9021285199213183	-2.5827625252658351	295.12015107022108	-2
-1.53125	-1.76524060531837	298.45858528300187	-2
-1.1927224069152049	-2.3320015826714329	297.49128955494234	-2
-2.2341788372192273	-3.1104766724910968	296.17414099227369	-2
-1.1778722762087603	-2.7717946418175989	296.920404979642	-2
-1.4122551426168586	-2.9755856771907685	296.63779692840313	-2
-2.0068350069571701	-3.2975150216444273	296.05154044089278	-2
-1.6479269726638508	-3.1759873918022365	296.32811149405535	-2
-2.9657474219495512	-3.1118503717764252	295.64091873905437	-2
-2.6642516405585011	-3.2724455097064675	295.69745337743632	-2
-2.4234253403762529	-3.3359857017007153	295.78541176663373	-2
-2.9068068474581121	-3.3010110438912035	295.4729214309591	-2
-2.796096390047925	-3.3558525998417266	295.50066781569637	-2
-1.7500000000000002	-1	299.23919085716557	-2
-1.7500000000000002	-0.75124999999999997	299.24430827315672	-2
-1.9425172517223654	-0.45678948778707457	299.25030916491011	-2
-1.7500000000000002	-0.50249999999999995	299.24981456299224	-2
-1.375	-1.23828125	298.79949469719537	-2
-1.5	-1	298.91901220505474	-2
-1.3125	-1.5	298.69474082654563	-2
-1.9185044242696541	0.067242272396888736	299.26134020152267	-2
-1.8862916488345143	0.032720829096512867	299.26396993241008	-2
-1.8535212489233894	-0.026151315778834013	299.2665650618294	-2
-1.9160656243518137	0.20338053580578283	299.2573538636272	-2
-1.8949651273281625	0.14226756325248879	299.25998397605946	-2
-1.8825839684891823	0.10512577622378731	299.26194331903054	-2
-1.8138567269301971	0.34618749999999998	299.25391001000639	-2
-1.8523547594500474	0.2865178932257948	299.25559016823797	-2
-1.846542287146971	-0.12594684898996744	299.26260561922106	-2
-1.8317649611142111	-0.069492498498072014	299.26657455959833	-2
-1.8243963874857878	-0.15572070490034395	299.26175391589493	-2
-1.8272765302319485	-0.21798321982824073	299.25867974662441	-2
-1.8513657891151603	-0.28694106885968673	299.25572190867797	-2
-1.8157743257518322	-0.25796565308701125	299.25718098529717	-2
-1.84792026034757	-0.36395417030923116	299.25327938669193	-2
-1.7500000000000002	0.37724999999999997	299.25310900409687	-2
-1.6862600037474405	0.42685309612910921	299.25041241176507	-2
-1.613229857999372	0.4613473286888552	299.23882871384029	-2
-1.4261235150992817	0.74837668284812531	299.03304948224172	-2
-1.509109474807699	0.52255260482196153	299.20063983918129	-2
-1.25	1	298.65883757831892	-2
-1.0627260852090032	1.2501695639067525	298.52943102586931	-2
-0.99916082249367266	2.6408835906237087	297.08427974061112	-2
-0.65625	2.2015632425072433	297.56184279909195	-2
-0.87500000000000011	1.5	298.37077709928656	-2
-4.0718451954148094	2.3037391685603614	295.12707801896943	-2
-4.0998011632405795	2.2260104089657675	295.15168573136538	-2
-4.194001066079923	2.2299899232329934	294.99999999999994	-1
-4.2322809898947682	2.156454873762859	295	-1
-3.9776821448732314	2.4375267533484517	295.14821384559974	-2
-4.1136206679761029	2.3750000000000124	294.99999999999994	-1
-4.0715446783350524	2.4464308558227703	295.00000000000006	-1
-2.7850248523349905	3.077464120203004	295.84483224849083	-2
-3.1224024368199195	2.9993151522662607	295.62801316320628	-2
-3.039280954770474	3.1309443308973206	295.55300629322534	-2
-3.2203697633283062	2.9721748222364015	295.55822714985879	-2
-3.3220176279034028	2.9735554759414842	295.44577185321947	-2
-3.4214788797788649	2.9329308362959527	295.37853276749445	-2