[Format]      =  1
[Precision]   =  1e-008
[MinAngle]    =  30
[DoSmartMesh] =  1
[Depth]       =  1
[LengthUnits] =  millimeters
[ProblemType] =  axisymmetric
[Coordinates] =  cartesian
[PrevSoln] = ""
[dT] = 0
[Comment]     =  "Add comments here."
[PointProps]   = 0
[BdryProps]   = 1
  <BeginBdry>
    <BdryName> = "Ambient"
    <BdryType> = 0
    <Tset> = 295
    <qs>   = 0
    <beta> = 0
    <h>    = 0
    <Tinf> = 0
  <EndBdry>
[BlockProps]  = 4
  <BeginBlock>
    <BlockName> = "Silver"
    <Kx> = 428
    <Ky> = 428
    <Kt> = 2.484
    <qv> = 28000000000
    <TKPoints> = 6
      273	428
      473	415
      673	399
      873	383
      1073	368
      1273	355
  <EndBlock>
  <BeginBlock>
    <BlockName> = "Aluminum, Pure"
    <Kx> = 236
    <Ky> = 236
    <Kt> = 2.4500000000000002
    <qv> = 0
    <TKPoints> = 4
      273	236
      473	238
      673	228
      873	215
  <EndBlock>
  <BeginBlock>
    <BlockName> = "Quartz, fused"
    <Kx> = 1.3
    <Ky> = 1.3
    <Kt> = 1.639
    <qv> = 0
    <TKPoints> = 6
      273	1.3
      473	1.6000000000000001
      673	1.8999999999999999
      873	2.2999999999999998
      1073	3.2000000000000002
      1273	3.7999999999999998
  <EndBlock>
  <BeginBlock>
    <BlockName> = "Air"
    <Kx> = 0.018100000000000002
    <Ky> = 0.018100000000000002
    <Kt> = 0.0011850000000000001
    <qv> = 0
    <TKPoints> = 18
      200	0.018100000000000002
      250	0.0223
      300	0.026100000000000002
      350	0.029700000000000001
      400	0.033099999999999997
      450	0.036299999999999999
      500	0.0395
      550	0.042599999999999999
      600	0.045600000000000002
      700	0.051299999999999998
      800	0.056899999999999999
      900	0.0625
      1000	0.067199999999999996
      1200	0.075899999999999995
      1400	0.083500000000000005
      1600	0.090399999999999994
      1800	0.097000000000000003
      2000	0.1032
  <EndBlock>
[ConductorProps]  = 0
[NumPoints] = 22
0	0	0	0	0
3	0	0	0	0
1.8369095307335659e-015	30	0	0	0
3.0000000000000022	30	0	0	0
2.8999999999999999	6.5000000000000009	0	0	0
3	6.5000000000000009	0	0	0
2.8999999999999999	23.5	0	0	0
3	23.5	0	0	0
2.899999999999999	0.099999999999999978	0	0	0
2.8999999999999999	29.899999999999991	0	0	0
2.6000000000000001	29.899999999999999	0	0	0
2.6000000000000001	0.10000000000000001	0	0	0
-5.5511151231257827e-017	29	0	0	0
0.29999999999999988	29	0	0	0
0.29999999999999988	29.5	0	0	0
0.010000000000000011	29	0	0	0
1.110223024625157e-016	1	0	0	0
0.40000000000000008	1	0	0	0
0.40000000000000008	0.49999999999999989	0	0	0
0.01	1	0	0	0
-7.3478807948841184e-015	-25	0	0	0
1.2246467991473532e-014	55	0	0	0
[NumSegments] = 26
0	1	-1	0	0	0	0
2	3	-1	0	0	0	0
4	5	-1	0	0	0	0
6	7	-1	0	0	0	0
7	3	-1	0	0	0	0
1	5	-1	0	0	0	0
4	8	-1	0	0	0	0
9	6	-1	0	0	0	0
10	11	-1	0	0	0	0
4	6	-1	0	0	0	0
12	15	-1	0	0	0	0
13	14	-1	0	0	0	0
14	10	-1	0	0	0	0
10	9	-1	0	0	0	0
15	13	-1	0	0	0	0
16	19	-1	0	0	0	0
17	18	-1	0	0	0	0
18	11	-1	0	0	0	0
11	8	-1	0	0	0	0
19	17	-1	0	0	0	0
19	15	-1	0	0	0	0
21	2	-1	0	0	0	0
2	12	-1	0	0	0	0
12	16	-1	0	0	0	0
16	0	-1	0	0	0	0
0	20	-1	0	0	0	0
[NumArcSegments] = 1
20	21	180	5	1	0	0	0	5
[NumHoles] = 0
[NumBlockLabels] = 6
0.23400000000000001	29.779	2	-1	0	0
0.53400000000000003	29.324999999999999	4	-1	0	0
0.0045999999999999999	28.511600000000001	1	-1	0	0
2.7610000000000001	29.783000000000001	3	-1	0	0
3.0659999999999998	29.779	4	-1	0	0
1.107	0.123	2	-1	0	0
[Solution]
16586
-7.3478807948841184e-015	-25	295	-1
-7.3435021228235169e-015	-24.985102262193578	295.00822879685825	-2
0.015610128462209119	-24.999318447072419	295.00000000000006	-1
-7.336335010078631e-015	-24.960717296837732	295.02247664975351	-2
0.022432079111233266	-24.97646066761714	295.0129899057365	-2
0.031220256924425739	-24.998636894144834	295	-1
-7.3291678973337451e-015	-24.936332331481886	295.03712032755863	-2
0.018782941623238573	-24.948524814159811	295.02969752105128	-2
0.046040878439465568	-24.97987265920025	295.01064025685321	-2
0.039682527115933251	-24.940483492371243	295.03439122573047	-2
0.062440513848858674	-24.997273788289668	295	-1
-7.3220007845888608e-015	-24.911947366126039	295.05200208985912	-2
0.021347416251303243	-24.924010025001138	295.0445561063928	-2
0.082144679109325741	-24.962275209130674	295.0205736901645	-2
0.05693138124592223	-24.902845067646375	295.05733823956467	-2
0.12488102769772486	-24.994547576579333	295	-1
-7.3148336718439749e-015	-24.887562400770193	295.06706299242927	-2
0.020971330393604652	-24.899754883448118	295.05946719788756	-2
0.12676862061350183	-24.908280002290592	295.05317497139532	-2
0.028207077126959811	-24.863177435414347	295.08220110444364	-2
0.081529458469135022	-24.854799195214152	295.08712428853056	-2
0.24976205539545704	-24.989095153158665	295.00000000000006	-1
0.21827089164952851	-24.903021807560279	295.05475149084492	-2
-7.3004994463542031e-015	-24.8387924700585	295.09759847417092	-2
0.14726875162356362	-24.845064837933617	295.09263217527422	-2
0.045724673893944461	-24.814407504702654	295.11289763184516	-2
0.1203887544298039	-24.784287554949163	295.1316571457445	-2
0.49952411079092168	-24.97819030631733	295	-1
0.3708168724876672	-24.896008099090203	295.05597459688249	-2
0.23128957067549177	-24.771572155321756	295.13860080087494	-2
-7.2861652208644313e-015	-24.790022539346804	295.12852507622404	-2
0.055373587698863046	-24.741252608635111	295.15963711163272	-2
0.12229908669081167	-24.710773118518215	295.17903010887119	-2
0.74928616618638622	-24.967285459475995	294.99999999999989	-1
0.51049741275668525	-24.819128168412707	295.10295325459919	-2
0.44292093812158367	-24.674716959890954	295.19870125168552	-2
0.21474450126389616	-24.628844547353879	295.23174466819881	-2
-7.2574967698848893e-015	-24.692482677923415	295.19133002574932	-2
0.092117497379733682	-24.643712747211723	295.22280773040131	-2
0.99904822158185047	-24.956380612634664	295.00000000000006	-1
0.70828310847892961	-24.638558745495349	295.21810284590913	-2
0.29728869475205749	-24.456477407348387	295.34492934663854	-2
0.54710295442788648	-24.447485523255814	295.34812803722917	-2
0.11060962689648378	-24.497402955076645	295.3190615929683	-2
-7.2288283189053473e-015	-24.59494281650003	295.25499867975662	-2
1.9980964431637078	-24.912761225269328	295	-1
1.5768875621795826	-24.411006927953931	295.34924205014823	-2
0.93409291568352237	-24.28455797093817	295.45126029520776	-2
0.18432646599477118	-24.30232323222987	295.44921965017068	-2
0.48800507281267447	-24.198257125531285	295.51712108205055	-2
0.74643308449088686	-24.058507688865639	295.60857666028829	-2
-7.1714914169462617e-015	-24.399863093653256	295.38440020112216	-2
3.4862297099063193	-24.84778792366982	295	-1
2.5920917095665787	-23.986444834746326	295.60450058726423	-2
1.142363407353653	-23.920738577795387	295.69631186026942	-2
1.5523744720755097	-23.348256942633299	296.08393173425077	-2
-7.1141545149871761e-015	-24.204783370806481	295.51575323855718	-2
0.22120092320573337	-24.009703647959707	295.64798451792137	-2
0.50340891897832218	-23.893419236073683	295.72582699984105	-2
0.88965240800026968	-23.58625644175055	295.93357793644435	-2
5.2160784082917626	-24.620049022079069	295	-1
4.2192068864238879	-24.048766461126686	295.46305790380353	-2
3.4159907004067196	-23.320388401723278	296.01363520630588	-2
2.3644299215122278	-23.191312271592267	296.16520333450347	-2
1.8547247818111383	-22.539954955451318	296.66105667741374	-2
0.44239940241424547	-23.034305033725833	296.33603935546654	-2
0.7373319300251846	-22.253986142338732	296.90274195230717	-2
-6.9994807110690057e-015	-23.814623925112933	295.7840166696347	-2
0.36866515035584541	-23.619544202266159	295.91826483638187	-2
6.0810027574844838	-24.506179571283695	295	-1
5.0756518996900377	-23.65875352645751	295.64999233525964	-2
4.4203873391681547	-22.98330071116855	296.17469097496587	-2
3.5738969924641273	-22.125981658792139	296.86346975840877	-2
2.3969225011236786	-21.868546402145768	297.1343127638745	-2
1.4960065562464031	-21.755041554541855	297.26417873838597	-2
-6.8848069071508345e-015	-23.424464479419381	296.05842551911763	-2
-6.6554592993144929e-015	-22.644145588032281	296.62363335706158	-2
-6.4261116914781529e-015	-21.863826696645184	297.21092751310181	-2
0.88479847896290864	-21.083507805258087	297.81403440106209	-2
6.9459271066772059	-24.392310120488318	295	-1
5.9252064924530927	-23.253950927808589	295.84170889860405	-2
6.775417951339862	-23.518399751458279	295.57267026882477	-2
5.7112850631738574	-22.451158528388568	296.42104575496023	-2
4.9845113819492317	-22.048619051131205	296.7893710352887	-2
4.1889700599674455	-21.300969570242398	297.43173780713772	-2
3.1996595113792892	-21.017730337307849	297.74265428314567	-2
2.0949627563535285	-20.63312695295463	298.12704625853314	-2
-5.9674164758054705e-015	-20.303188913870986	298.46591620881441	-2
0.88479845180745154	-20.191714790928746	298.55116463275743	-2
7.7976357810331098	-24.20349085325692	295	-1
6.5761410384920822	-22.65059711424292	296.17764520162171	-2
7.4286030405934751	-22.911624618381538	295.88599647131053	-2
5.7380450915619008	-21.62078396510276	297.01733541116278	-2
6.5927811665827711	-21.763199394103665	296.79836588383563	-2
5.1639402876096057	-20.971738830741142	297.57934238447194	-2
4.3159265238364792	-20.068699641723189	298.40118989031083	-2
2.9458218468078599	-19.968015971861597	298.62479932275295	-2
1.474664077293939	-19.52287002248389	299.10678014464446	-2
-5.508721260132788e-015	-18.742551131096789	299.85410536917675	-2
0.61667769679133977	-19.360725848069695	299.2811384900798	-2
8.6493444553890129	-24.014671586025525	295	-1
8.3534714441987408	-23.115093691212948	295.62104852529291	-2
7.3473693549977295	-21.715335637240411	296.72204457576856	-2
8.0074682383875544	-22.233581916388239	296.26213191980617	-2
6.3662392794143434	-20.486691406247392	297.78764289838557	-2
7.4020959001750466	-20.961214109521311	297.25929437947968	-2
5.4260905833167996	-19.860720002248993	298.42505126607495	-2
4.6807731417615024	-19.012061248266505	299.25313201013057	-2
3.5651915931830285	-19.083304196052961	299.32978203360602	-2
2.4478357936363415	-18.960225158716906	299.54770419923682	-2
1.1856440389755083	-18.83485776383689	299.74267297292846	-2
1.8502547047439339	-18.560116489926546	299.96128257949124	-2
-5.2793736522964472e-015	-17.962232239709692	300.60731146348655	-2
0.61632871882420137	-18.352391685403241	300.21435643292006	-2
9.5010531297449177	-23.825852318794126	294.99999999999994	-1
8.7382759705788082	-21.87048397881318	296.38999933153883	-2
9.7612746150544609	-22.984321171769789	295.4905334667751	-2
9.5940384334173476	-22.119496361545057	296.07348045395156	-2
8.049028482664033	-21.433611052088537	296.81040459979937	-2
6.3492653451650982	-19.493192568162552	298.57969299635266	-2
7.9509003494873873	-19.96272304240496	297.91396113465714	-2
8.1049330435575691	-20.691164219438583	297.33697113587107	-2
5.73679554093059	-18.495456140527349	299.53393358993486	-2
4.7260212643331725	-17.895123310625479	300.25939429941747	-2
3.0956026875567026	-18.21298272360546	300.1853407106085	-2
1.2997421850177027	-18.097378907416001	300.43534646247855	-2
2.2320967523260098	-17.620412400948219	300.83912163712284	-2
-5.0500260444601056e-015	-17.181913348322592	301.40260612046274	-2
0.6875015739538306	-17.586219842532024	300.97264664909625	-2
10.352761804100821	-23.637033051562732	294.99999999999994	-1
8.7547476827691266	-21.054610988452975	296.95309315575344	-2
10.930971525266637	-22.3095479871298	295.7019224572291	-2
10.322495887663315	-21.382488505513269	296.42328546058155	-2
6.8999558522934077	-18.66610852099528	299.16455786839197	-2
7.7413418574212454	-19.058358319338051	298.66764267297702	-2
8.8300598043974858	-20.157326278373191	297.58682161780229	-2
9.2963360692234254	-19.174498314725561	298.22366340788273	-2
6.4418999721811296	-17.738845438712765	300.07618343469699	-2
5.5168817634861309	-17.080481008967382	300.88898539884866	-2
3.2038799300226053	-17.230002945352368	301.13268953283841	-2
4.3470463867046298	-16.736004193742591	301.46059712696126	-2
1.3392810663883057	-16.899866885744011	301.65259301225052	-2
2.2040101470253255	-16.145844800100647	302.39648842513895	-2
3.0346367481868692	-16.382941938653708	302.03994650819737	-2
-4.820678436623764e-015	-16.401594456935491	302.24863674276241	-2
0.61717358675815348	-16.791753902629043	301.80242681207881	-2
11.184772786332299	-23.374700996531132	295	-1
9.9901420852284541	-20.400973455956628	297.16472894836807	-2
12.01678376856378	-23.112368941499533	294.99999999999989	-1
12.08845280259051	-21.879747937451459	295.73871990915455	-2
11.267571480522234	-20.95744384164669	296.50418448274178	-2
7.5993265052987748	-18.140958758793978	299.460465058073	-2
8.6019097011943035	-18.404741081622351	298.99859197313629	-2
9.5955885732854878	-18.339831855172452	298.800777218289	-2
10.116357062996535	-18.99752134088838	298.15752460183575	-2
7.2576480618891113	-17.335876511856195	300.25323429464873	-2
6.5920292677723689	-16.715569714543182	301.0029564247651	-2
5.7903197141411855	-16.119795276521437	301.79419543080382	-2
4.8484479800920859	-15.912069155775903	302.22569123354492	-2
3.6255225300393139	-15.752854963330579	302.63937378479898	-2
1.1285369839416488	-15.772084716949422	302.91945471462242	-2
2.698704543045976	-15.235500961907253	303.39679268884862	-2
1.8776989886006317	-14.603521271758266	304.26486701976444	-2
-4.5913308287874232e-015	-15.621275565548395	303.14103401431589	-2
10.578348263556084	-19.746470469806702	297.49556562919287	-2
12.84879475079526	-22.850036886467933	295	-1
12.620172265045142	-20.772283844997464	296.31535096146553	-2
13.01756194272213	-21.934731154299598	295.51139956489249	-2
11.815613032969683	-19.84390528809832	297.12220885603506	-2
8.1578620714678554	-17.467950880422986	299.90055718381547	-2
9.1718072833352977	-17.56096756777799	299.54831287884571	-2
10.183484897550104	-17.676056236603582	299.16192397554568	-2
10.953949478870202	-18.950678792194701	297.97125567297741	-2
7.9195459747100561	-15.958354702972711	301.35620427273858	-2
6.8195286298756397	-15.57213175671971	302.07908532959351	-2
5.4692935706149477	-15.173947717685285	302.88614174863272	-2
4.3619383933210836	-14.872696033110945	303.51029006461124	-2
3.0752116596315853	-14.270259624027805	304.5172848617251	-2
0.67862090730300595	-14.840956674161296	304.07554078357884	-2
0.97113220296232305	-13.901320016646173	305.28735309714079	-2
2.4611696034223201	-13.189494951985825	306.09343076537789	-2
1.5541066240744885	-13.108463957475642	306.3476505667843	-2
-4.1326356131147416e-015	-14.060637782774197	305.111466542193	-2
13.680805733026739	-22.587704831436334	295.00000000000011	-1
13.665714892532868	-20.472989370085905	296.24735252307107	-2
13.097906719356763	-19.545449372521951	296.98627180761224	-2
14.152048276074698	-21.445725926744117	295.54349734055853	-2
12.031330431050739	-18.773589247295856	297.80475446974009	-2
8.7486257717095555	-16.601079256628033	300.50757271812364	-2
9.7609513710600346	-16.88622358565673	299.94432877918553	-2
11.373443392095353	-17.79151399133189	298.71690303563292	-2
11.238772547188191	-16.603576503330398	299.6896030835926	-2
8.8991844139352221	-15.550770527132883	301.42471620788456	-2
7.7979505120441273	-14.545062072681391	302.82835716338917	-2
6.414482370724893	-14.457232818409587	303.41567541612636	-2
5.1588047805188104	-13.791396446964606	304.6003266240856	-2
4.2166240779106543	-13.703086251494762	304.99077511224198	-2
3.3627265327216476	-13.060947786295404	306.08825130973452	-2
-3.6739403974420592e-015	-12.5	307.38007522913659	-2
2.0484033393070211	-12.377735577674095	307.38365918013591	-2
2.8871457415646216	-12.104231664736426	307.62330801433689	-2
1.0104307572235398	-12.20815158807947	307.79448993245046	-2
15.292768101327354	-21.920008156451168	294.99999999999994	-1
14.617388218632524	-19.628813271086628	296.51662854707428	-2
15.12038039377471	-20.725684259296326	295.72607328019905	-2
13.414560170582327	-18.696623240540834	297.45938868085966	-2
14.352798875173624	-18.728104969053557	297.16155842729842	-2
12.817135259941715	-18.01555152137086	298.10880693941192	-2
9.8621991868475583	-15.99621286813243	300.68117428568291	-2
12.28685910230211	-17.02014932256958	299.00798249800118	-2
10.963711040958666	-15.363330931657456	300.83146240265438	-2
12.027870189163332	-15.922450327575673	299.95674799846228	-2
8.8255933129587998	-14.525580989172456	302.46278980645383	-2
9.7650298032430367	-14.942580173354957	301.68086711054241	-2
7.8592606458222063	-13.264003379131957	304.22730083280436	-2
8.7536393302758899	-13.496806188804047	303.56925443429282	-2
6.9445640235996597	-13.396065745803858	304.45260337381427	-2
6.0917733255710553	-13.63305232508376	304.49635277460612	-2
5.5527686403985905	-12.9309920977777	305.59342149245049	-2
4.8771642883194488	-12.308418439970007	306.69213399158724	-2
3.9674459286560504	-12.180154235939177	307.18882809565258	-2
-3.2152451817693768e-015	-10.939362217225803	310.07471549043612	-2
0.929605541918607	-11.235783647265231	309.46695748919956	-2
1.9901328382083152	-11.497452806947113	308.83669003898638	-2
3.4264034441287436	-11.165075734513399	309.00111223732273	-2
16.098749285477659	-21.586159818958585	294.99999999999994	-1
15.941705749667152	-20.778274666814479	295.49123005184759	-2
15.347062050406652	-19.301967892823335	296.51019738590486	-2
15.536356847370749	-20.062011196712955	296.00640813873071	-2
13.878081152354612	-17.918212352921742	297.84217416555367	-2
15.144637696962915	-18.528484742909324	297.0480013545764	-2
15.158136449133165	-17.711983219292634	297.56124990350207	-2
13.071423542314417	-17.222234910394757	298.59445544270721	-2
13.065721461048968	-16.412082189231818	299.19224128206457	-2
10.980016273009191	-14.362102689513174	301.71954286828458	-2
12.041051352943587	-14.880128777961358	300.81106310274856	-2
13.005638856933039	-15.561096777438362	299.86535675290929	-2
10.076094089665782	-13.93123317339578	302.52811694286356	-2
7.9701340577501067	-12.346497266932269	305.2631802943157	-2
9.2591323798740799	-12.804207459266479	304.08880578285067	-2
6.4275675742703591	-12.628142915512404	305.63639860441833	-2
7.0372860806606496	-11.931555415719926	306.26562690235352	-2
5.6985669115520245	-11.896912752899986	306.95032264890273	-2
4.5276056544641872	-11.497438527365755	308.04496582627081	-2
-2.9858975739330356e-015	-10.159043325838704	311.61778782687742	-2
1.0436627604027118	-10.266751615460254	311.26189313082551	-2
2.2761814048535562	-10.416867471184696	310.7303122561292	-2
3.125690299126834	-9.6903531293474803	311.86163802966087	-2
4.1828336786648634	-10.298516657242891	310.21415983572848	-2
16.904730469627967	-21.252311481466002	295	-1
16.754585263861248	-19.871480611773592	295.78085000444281	-2
16.084784233675833	-19.502792325522343	296.17903972648412	-2
15.929445174165963	-18.754170759544635	296.66737833477737	-2
14.665390553851012	-16.982454011217008	298.2120066845203	-2
13.794154984298782	-16.856121255765935	298.60677254519857	-2
16.213180161097583	-17.737671099660595	297.19424435717707	-2
15.554539344515755	-16.91306854322151	297.93961462337046	-2
13.794381421279855	-15.96841479944646	299.24710306368149	-2
11.848030756090942	-13.998679251899141	301.65918840908239	-2
11.188638578489158	-13.382714826041415	302.54133725430421	-2
13.042641683649579	-14.485031970563448	300.70219295654454	-2
14.164286559816775	-15.062270781750026	299.76926970383357	-2
10.267098970019594	-12.552418272382788	303.84567307273596	-2
8.762761844950484	-12.10504187415177	305.1447526367869	-2
8.2786410822405188	-10.894876089865511	306.95188697186597	-2
7.3989384249712256	-10.976783364336935	307.36675053359232	-2
9.5860571626677391	-12.011530722037204	304.80276311972187	-2
6.4062480893201732	-11.128951440067926	307.7148286195918	-2
5.2308072727817692	-10.963222146911271	308.58067472387495	-2
-2.7565499660966944e-015	-9.3787244344516054	313.30347482518169	-2
0.88423239298619971	-8.5984055430645068	315.02026527500777	-2
1.8973859956904244	-9.3652009421264086	312.99295833664729	-2
3.1036510790542531	-8.7291937523413186	313.9322123865054	-2
4.6559600356018231	-9.1744319398239416	312.08078917957062	-2
5.2578399394851383	-9.7225161878329356	310.6645897747818	-2
17.678547852220973	-20.849487648943889	295.00000000000006	-1
16.710439727891266	-19.158917938767075	296.19530737736414	-2
17.781460893031785	-19.345023895655391	295.77573736297001	-2
16.99237631238309	-18.503016914500947	296.48640552367903	-2
14.671959181736028	-16.102131209126455	298.81446391543773	-2
16.40133362060341	-16.633176833635979	297.81317148938524	-2
17.472337458046997	-17.171007622023609	297.10397036727352	-2
15.76191493941112	-16.119563472542641	298.38455890112493	-2
12.549504326757923	-13.431101021643277	301.82345597479775	-2
11.762813824382741	-12.283192018638733	303.29252753563799	-2
13.696096284776687	-13.62929733760439	301.09512981104859	-2
14.191001152553767	-14.260570631723576	300.36527254136769	-2
15.104356821964421	-15.028784349907696	299.39769265954186	-2
10.37914554319844	-11.654616017735016	304.74186150324249	-2
9.0490001829280775	-11.327464141949532	305.92694872773598	-2
7.8906624456521834	-10.101114069881531	308.31119042032248	-2
9.1937747871433899	-10.167420042494761	307.29163939887047	-2
6.9546151900904469	-10.076135770262676	308.98005736006866	-2
9.9610687518336665	-10.852235110974467	305.91887687883968	-2
6.0208508841694215	-10.006188639625792	309.70636908245734	-2
-2.2978547504240123e-015	-7.8180866516774081	317.18651663527396	-2
1.6507448940108844	-8.1187565696583253	316.06028794179775	-2
0.83042358342208289	-7.4203269764676145	318.23241975078048	-2
2.539241273443289	-7.9508913390349765	316.10778295902531	-2
4.4521005871945212	-8.2973131250158012	314.06187108905124	-2
3.6317937632769102	-7.9258392973649556	315.48814920996978	-2
5.3705679229385144	-8.5460933322908197	312.81717214666293	-2
5.8778453809654341	-9.195023046504069	311.20909346026548	-2
18.452365234813978	-20.446663816421776	295	-1
18.047867507981994	-18.222233733941671	296.31244587264496	-2
18.952521076879304	-19.029883143225458	295.60071216672026	-2
17.596265214083388	-15.978970253464913	297.77208230515049	-2
16.910798144532279	-15.369731677923374	298.41874608576569	-2
18.393083033158472	-16.348649671768772	297.25240176447403	-2
18.813201104286172	-17.120065458115533	296.66853101598463	-2
15.994450938306336	-15.333063667222202	298.8146207489105	-2
13.051615165662762	-12.381415543365076	302.48707729087596	-2
12.134985963251468	-11.470126531370703	303.87202616117816	-2
10.98160302758404	-10.979598756830141	305.1035907381571	-2
14.188711518975538	-12.984572857183128	301.36989495896444	-2
14.976266752180429	-14.096879648280641	300.12721531209979	-2
15.859290168099296	-13.737262447846673	299.97653904660092	-2
7.4539714653082232	-9.284017287649668	309.87881272411454	-2
8.9019918425395659	-9.0353755592946321	309.07459518636244	-2
10.457856204026127	-10.062567836085144	306.51400525172693	-2
9.7913530260928852	-9.4097694816969781	307.83387757575093	-2
6.6302701884332844	-8.8599154480851272	311.22413464457043	-2
-1.8391595347513299e-015	-6.2574488689032108	322.16073080828073	-2
1.7286672196278567	-7.2179054925722372	318.53881955100343	-2
1.0188916810447428	-6.5190523993796594	321.07018925363064	-2
2.6600410426528311	-6.8647486395739881	319.05860175111042	-2
4.6019755418253112	-7.4093752961281094	315.96278359988486	-2
3.4353215996721742	-6.5004918228802104	319.51642155478407	-2
5.9229877440106735	-7.7712990501442141	313.92453854300089	-2
19.226182617406984	-20.043839983899662	295	-1
18.999802886091103	-18.066443471852519	296.09434895850001	-2
19.999999999999989	-19.641016151377549	295	-1
19.908882627107818	-18.593937548443343	295.53644171827045	-2
17.761408639960216	-15.102927970028672	298.23534851647486	-2
16.766852528707062	-14.464018475495823	299.06753783499238	-2
19.552202330797694	-16.587153567318172	296.69819963931127	-2
19.083634789744043	-15.805768671373995	297.29968688376374	-2
20.007970118922611	-17.376072840404131	296.12513492192807	-2
13.875061595327333	-12.236266001665468	302.1592351706326	-2
13.726809495574207	-11.212957108745208	303.13684180762635	-2
12.945863018058386	-11.09321010890522	303.73209228325118	-2
12.271622337109738	-10.586430832119325	304.66895484271441	-2
11.715203505882222	-9.9525350871571607	305.72057369813535	-2
15.079248243041366	-13.189002036125281	300.76294342808836	-2
14.702499955828763	-12.356591275625856	301.60442000813543	-2
16.863670567571287	-13.305368386182057	299.79474501617517	-2
15.902261139444606	-12.784787577033466	300.64164676906472	-2
7.559066333192467	-8.3635276176414575	311.29002270046374	-2
9.0694698825976392	-8.1761684938026402	310.17960032110619	-2
10.725766419369231	-9.1689256849967897	307.37924665656004	-2
9.9015881166584698	-7.904387479313888	309.7699062739988	-2
6.8216662309785319	-7.6116604445404015	313.36861458882032	-2
-1.3804643190786477e-015	-4.6968110861290135	328.84848347030578	-2
0.87406650478754766	-5.4771299775161122	325.04149098940042	-2
2.041460071847164	-6.2722112541228885	321.38151157214816	-2
2.7984848745772832	-6.0194225036937699	321.64005958831967	-2
5.5530554269534669	-6.8585261333752499	316.32810881694286	-2
4.7299045787191947	-6.3177609367867182	318.6516870383212	-2
3.522478668042091	-5.7230588018592421	321.88918821902155	-2
6.3423641701128188	-6.8348869628947879	315.47230510413993	-2
20.735764363510448	-19.172282556423081	294.99999999999994	-1
20.712940509730782	-18.324630130073963	295.4190853089799	-2
18.327515232826205	-14.414272933749848	298.41805875089062	-2
17.768473158943166	-13.631604583978186	299.153032890205	-2
20.064196661691899	-15.748945820880396	296.95957458350699	-2
20.812478877188486	-16.385188028712932	296.35368808714657	-2
19.493171309595898	-15.009301895067235	297.58740766536471	-2
20.834260179471745	-17.224909018195639	295.92489237744928	-2
14.416222445299722	-11.598867110514803	302.38807020050518	-2
13.724334335102672	-10.472566863387772	303.80388228021201	-2
14.393616477280553	-10.789182175717405	303.08631758404755	-2
13.029630576259015	-10.216499432252345	304.5169830581487	-2
12.589961476043939	-9.4533941336990548	305.59993115332747	-2
11.81350978914363	-8.8119379967027829	306.91021946516776	-2
15.218574719252183	-11.709914631474357	301.82640404234422	-2
17.753331819090782	-12.669903733436179	299.7780801612023	-2
16.673070536834658	-11.770572687009842	300.96195507769443	-2
15.975920343170316	-11.376820876706068	301.6463230703846	-2
8.3536214883048725	-7.6723364268581875	311.68104137186873	-2
9.6889282800202601	-6.886746694178143	311.48437378899894	-2
10.857391770118225	-8.1822839791847493	308.50884478424052	-2
10.531862870532123	-7.2416363171232563	310.05338189975191	-2
7.1276354991558035	-6.7517242176787624	314.71551170370356	-2
8.0560867655373052	-6.7919322423817858	313.53795736439639	-2
-1.1511167112423065e-015	-3.9164921947419149	333.06858329329418	-2
0.92764158735429592	-4.3066516404354642	330.47002682063038	-2
1.6181030380060526	-4.9247206980446308	326.97489210079402	-2
2.2116435208422907	-5.4784918890687777	324.19532158931452	-2
3.2475848483483216	-4.9906437251201048	324.89021565206707	-2
5.7674560470041829	-5.8972578612929434	318.41545877974272	-2
5.0387629118799957	-5.0473506895012585	321.92184289304402	-2
4.1389786666880406	-5.1515095775759692	322.97275001984093	-2
6.5965739329742279	-6.0872610545189829	316.82537919493552	-2
21.47152872702091	-18.703548961468613	295	-1
21.660475091652639	-17.376483040365951	295.57640573587895	-2
19.297180791776857	-14.135421351870466	298.1638501248533	-2
19.303060127938629	-13.126473913032342	298.74984385903497	-2
18.633485619402492	-12.540805988890606	299.42516204882065	-2
20.235012035390323	-14.507553128844879	297.55979021664473	-2
21.044583194408403	-15.35406381977587	296.79230544721946	-2
22.019736028848794	-15.970920938622685	296.128140189845	-2
15.339194071616481	-10.89139473839368	302.40725012162591	-2
14.319931066684619	-10.079249387517375	303.75245632920451	-2
13.593387489052358	-9.5398778558584496	304.76472917468959	-2
15.028389374772742	-9.992526096545026	303.34253091132217	-2
12.666044448061657	-8.570642659047417	306.46072523491603	-2
13.50898117151465	-8.6923876050669229	305.64526422618405	-2
12.246392461543163	-7.6493152669197579	307.84836675210528	-2
18.070993056718542	-11.851647765566568	300.15251918330551	-2
17.375644039087021	-11.31597880573754	300.88967321448609	-2
16.636275092311397	-10.924062126453189	301.5948630513588	-2
16.075257706112925	-10.289086909413468	302.41624877530597	-2
8.8379275634090497	-6.289574395743351	313.44754208473051	-2
9.7401902038417454	-5.8483878020523008	313.01423989206813	-2
10.766658234268929	-6.1955228808323213	311.22206770489061	-2
11.42711961303068	-7.054551487790671	309.36488866676564	-2
7.6875951285084421	-5.7597326138647054	315.98189365450952	-2
-9.2176910340596548e-016	-3.1361733033548163	337.92767444700661	-2
0.92513803856175503	-3.1620690089674715	337.36152964317603	-2
1.898420099147498	-4.0414490976616939	330.95770095139812	-2
2.443249660334657	-4.7004742588551567	327.15059289587248	-2
3.5972362422822628	-3.9826744965088205	328.49910238065286	-2
6.6738613589546096	-5.2401693616917813	318.68578957010214	-2
6.2918906761769744	-4.4282418807138084	321.42769100919196	-2
4.4704815383587855	-4.308558447358644	325.4776129854074	-2
5.438114080420517	-4.1522104306807277	323.95710822691132	-2
22.207293090531373	-18.234815366514145	294.99999999999989	-1
22.943057454041831	-17.766081771559676	295	-1
22.743197256283377	-16.789092099095104	295.49620656515361	-2
20.161543200281127	-13.673649989443724	298.04876085246468	-2
19.650380547307321	-12.053809109084035	299.20887041989857	-2
20.253153355860992	-12.84154441018708	298.46866422709911	-2
18.781122786929178	-11.335733763899231	300.09640744143564	-2
20.938694070501263	-13.984822996871243	297.54660647706947	-2
22.282803630278408	-15.120897364685105	296.43897761585418	-2
21.654474916058046	-14.490859535616295	296.99248698737154	-2
23.464671640702612	-16.100668079048326	295.55801634470896	-2
23.172051044598632	-15.089533766416597	296.12182657646161	-2
14.910196920771687	-8.980781028017315	304.29088908743768	-2