[Format]      =  1
[Precision]   =  1e-008
[MinAngle]    =  30
[DoSmartMesh] =  1
[Depth]       =  1
[LengthUnits] =  millimeters
[ProblemType] =  axisymmetric
[Coordinates] =  cartesian
[PrevSoln] = ""
[dT] = 0
[Comment]     =  "Add comments here."
[PointProps]   = 0
[BdryProps]   = 1
  <BeginBdry>
    <BdryName> = "Ambient"
    <BdryType> = 0
    <Tset> = 295
    <qs>   = 0
    <beta> = 0
    <h>    = 0
    <Tinf> = 0
  <EndBdry>
[BlockProps]  = 4
  <BeginBlock>
    <BlockName> = "Silver"
    <Kx> = 428
    <Ky> = 428
    <Kt> = 2.484
    <qv> = 28000000000
    <TKPoints> = 6
      273	428
      473	415
      673	399
      873	383
      1073	368
      1273	355
  <EndBlock>
  <BeginBlock>
    <BlockName> = "Aluminum, Pure"
    <Kx> = 236
    <Ky> = 236
    <Kt> = 2.4500000000000002
    <qv> = 0
    <TKPoints> = 4
      273	236
      473	238
      673	228
      873	215
  <EndBlock>
  <BeginBlock>
    <BlockName> = "Quartz, fused"
    <Kx> = 1.3
    <Ky> = 1.3
    <Kt> = 1.639
    <qv> = 0
    <TKPoints> = 6
      273	1.3
      473	1.6000000000000001
      673	1.8999999999999999
      873	2.2999999999999998
      1073	3.2000000000000002
      1273	3.7999999999999998
  <EndBlock>
  <BeginBlock>
    <BlockName> = "Air"
    <Kx> = 0.018100000000000002
    <Ky> = 0.018100000000000002
    <Kt> = 0.0011850000000000001
    <qv> = 0
    <TKPoints> = 18
      200	0.018100000000000002
      250	0.0223
      300	0.026100000000000002
      350	0.029700000000000001
      400	0.033099999999999997
      450	0.036299999999999999
      500	0.0395
      550	0.042599999999999999
      600	0.045600000000000002
      700	0.051299999999999998
      800	0.056899999999999999
      900	0.0625
      1000	0.067199999999999996
      1200	0.075899999999999995
      1400	0.083500000000000005
      1600	0.090399999999999994
      1800	0.097000000000000003
      2000	0.1032
  <EndBlock>
[ConductorProps]  = 0
[NumPoints] = 22
0	0	0	0	0
3	0	0	0	0
1.8369095307335659e-015	30	0	0	0
3.0000000000000022	30	0	0	0
2.8999999999999999	6.5000000000000009	0	0	0
3	6.5000000000000009	0	0	0
2.8999999999999999	23.5	0	0	0
3	23.5	0	0	0
2.899999999999999	0.099999999999999978	0	0	0
2.8999999999999999	29.899999999999991	0	0	0
2.6000000000000001	29.899999999999999	0	0	0
2.6000000000000001	0.10000000000000001	0	0	0
-5.5511151231257827e-017	29	0	0	0
0.29999999999999988	29	0	0	0
0.29999999999999988	29.5	0	0	0
0.010000000000000011	29	0	0	0
1.110223024625157e-016	1	0	0	0
0.40000000000000008	1	0	0	0
0.40000000000000008	0.49999999999999989	0	0	0
0.01	1	0	0	0
-7.3478807948841184e-015	-25	0	0	0
1.2246467991473532e-014	55	0	0	0
[NumSegments] = 26
0	1	-1	0	0	0	0
2	3	-1	0	0	0	0
4	5	-1	0	0	0	0
6	7	-1	0	0	0	0
7	3	-1	0	0	0	0
1	5	-1	0	0	0	0
4	8	-1	0	0	0	0
9	6	-1	0	0	0	0
10	11	-1	0	0	0	0
4	6	-1	0	0	0	0
12	15	-1	0	0	0	0
13	14	-1	0	0	0	0
14	10	-1	0	0	0	0
10	9	-1	0	0	0	0
15	13	-1	0	0	0	0
16	19	-1	0	0	0	0
17	18	-1	0	0	0	0
18	11	-1	0	0	0	0
11	8	-1	0	0	0	0
19	17	-1	0	0	0	0
19	15	-1	0	0	0	0
21	2	-1	0	0	0	0
2	12	-1	0	0	0	0
12	16	-1	0	0	0	0
16	0	-1	0	0	0	0
0	20	-1	0	0	0	0
[NumArcSegments] = 1
20	21	180	5	1	0	0	0	5
[NumHoles] = 0
[NumBlockLabels] = 6
0.23400000000000001	29.779	2	-1	0	0
0.53400000000000003	29.324999999999999	4	-1	0	0
0.0045999999999999999	28.511600000000001	1	-1	0	0
2.7610000000000001	29.783000000000001	3	-1	0	0
3.0659999999999998	29.779	4	-1	0	0
1.107	0.123	2	-1	0	0
