[Format]      =  1
[Precision]   =  1e-008
[MinAngle]    =  30
[DoSmartMesh] =  0
[Depth]       =  1
[LengthUnits] =  centimeters
[ProblemType] =  planar
[Coordinates] =  cartesian
[PrevSoln] = ""
[dT] = 0
[Comment]     =  "Add comments here."
[PointProps]   = 0
[BdryProps]   = 3
  <BeginBdry>
    <BdryName> = "Outer"
    <BdryType> = 0
    <Tset> = 295
    <qs>   = 0
    <beta> = 0
    <h>    = 0
    <Tinf> = 0
  <EndBdry>
  <BeginBdry>
    <BdryName> = "Generator"
    <BdryType> = 1
    <Tset> = 395
    <qs>   = 0.10000000000000001
    <beta> = 0
    <h>    = 0
    <Tinf> = 0
  <EndBdry>
  <BeginBdry>
    <BdryName> = "CBound"
    <BdryType> = 2
    <Tset> = 0
    <qs>   = 0
    <beta> = 0
    <h>    = 5
    <Tinf> = 295
  <EndBdry>
[BlockProps]  = 4
  <BeginBlock>
    <BlockName> = "Iron, Pure"
    <Kx> = 83
    <Ky> = 83
    <Kt> = 3.5299999999999998
    <qv> = 0
    <TKPoints> = 6
      273	83
      473	66
      673	53
      873	41
      1073	32
      1273	30
  <EndBlock>
  <BeginBlock>
    <BlockName> = "Silver"
    <Kx> = 428
    <Ky> = 428
    <Kt> = 2.484
    <qv> = 2000000
    <TKPoints> = 6
      273	428
      473	415
      673	399
      873	383
      1073	368
      1273	355
  <EndBlock>
  <BeginBlock>
    <BlockName> = "Window"
    <Kx> = 0.83999999999999997
    <Ky> = 0.83999999999999997
    <Kt> = 2.2679999999999998
    <qv> = 0
  <EndBlock>
  <BeginBlock>
    <BlockName> = "Air"
    <Kx> = 0.018100000000000002
    <Ky> = 0.018100000000000002
    <Kt> = 0.0011850000000000001
    <qv> = 0
    <TKPoints> = 18
      200	0.018100000000000002
      250	0.0223
      300	0.026100000000000002
      350	0.029700000000000001
      400	0.033099999999999997
      450	0.036299999999999999
      500	0.0395
      550	0.042599999999999999
      600	0.045600000000000002
      700	0.051299999999999998
      800	0.056899999999999999
      900	0.0625
      1000	0.067199999999999996
      1200	0.075899999999999995
      1400	0.083500000000000005
      1600	0.090399999999999994
      1800	0.097000000000000003
      2000	0.1032
  <EndBlock>
[ConductorProps]  = 1
  <BeginConductor>
    <ConductorName> = "New Conductor1"
    <Tc> = 355
    <qc> = 1
    <ConductorType> = 1
  <EndConductor>
[NumPoints] = 18
1.75	1	0	0	0
1.75	-1	0	0	0
-1.75	-1	0	0	0
-1.75	1	0	0	0
-1.75	1.5	0	0	0
1.75	1.5	0	0	0
1.75	-1.5	0	0	0
-1.75	-1.5	0	0	0
-2.75	1.5	0	0	0
-2.75	-1.5	0	0	0
2.75	-1.5	0	0	0
2.75	1.5	0	0	0
-4.75	0	0	0	0
4.75	0	0	0	0
-1.75	-0.0050000000000000001	0	0	0
-1.75	0.0030000000000000001	0	0	0
1.75	0.0030000000000000001	0	0	0
1.75	-0.0050000000000000001	0	0	0
[NumSegments] = 22
8	4	-1	3	0	0	0
4	3	-1	0	0	0	0
2	7	-1	0	0	0	0
7	9	-1	3	0	0	0
5	11	-1	3	0	0	0
10	6	-1	3	0	0	0
6	1	-1	0	0	0	0
0	5	-1	0	0	0	0
5	4	-1	3	0	0	0
3	0	-1	3	0	0	0
6	7	-1	3	0	0	0
2	1	-1	3	0	0	0
8	9	-1	3	0	0	0
11	10	-1	3	0	0	0
15	14	-1	0	0	0	0
16	17	-1	0	0	0	0
0	16	-1	0	0	0	0
16	15	-1	0	0	0	0
15	3	-1	0	0	0	0
14	2	-1	0	0	0	0
1	17	-1	0	0	0	0
17	14	-1	0	0	0	0
[NumArcSegments] = 2
12	13	180	1	1	0	0	0	1
13	12	180	1	1	0	0	0	1
[NumHoles] = 0
[NumBlockLabels] = 8
0.050000000000000003	0	2	-1	0	0
0.050000000000000003	0.5	4	-1	0	0
2.25	0	1	-1	0	0
0.050000000000000003	1.3	3	-1	0	0
0.050000000000000003	-1.3	3	-1	0	0
-2.3500000000000001	0.5	1	-1	0	0
0	2.75	4	-1	0	0
0.25	-0.5	4	-1	0	0
